88
Sodium yttrium tetrahydridoborate
B          4.24866        3.27785        8.78189
B          6.28815        0.43324        6.78831
H          4.26912        3.95138        0.72428
H          3.99201        2.10554        0.01630
H          5.33917        3.29727        8.19794
H          5.13710        3.64071        5.61317
H          3.03451        5.84091        6.74033
H          6.52432        1.62254        6.55926
H          5.73991        0.37378        7.89737
H          5.46365        0.03155        5.96535
Na         8.01131        0.00000        0.00000
Y          0.00000        4.22080        2.26337
B          4.27764        8.85785        4.25514
B          4.27764        3.27785        4.79836
B          4.24866        8.85785        0.27161
B          8.51181        9.34570        8.78189
B          0.01449        2.79000        4.25514
B          0.01449        9.34570        4.79836
B          8.51181        2.79000        0.27161
B          2.23815       11.70246        2.26156
B          2.23815        0.43324        6.79194
B          6.28815       11.70246        2.26519
B          2.02500        6.50109        6.78831
B          6.50130        5.63461        2.26156
B          6.50130        6.50109        6.79194
B          2.02500        5.63461        2.26519
H          4.25718        8.18432        5.25103
H          4.25718        3.95138        3.80247
H          4.26912        8.18432        8.32922
H          0.00597       10.01923        0.72428
H          8.52033        2.11647        5.25103
H          8.52033       10.01923        3.80247
H          0.00597        2.11647        8.32922
H          4.53429       10.03016        4.54305
H          4.53429        2.10554        4.51045
H          3.99201       10.03016        9.03720
H          8.25516        8.17339        0.01630
H          0.27114        3.96231        4.54305
H          0.27114        8.17339        4.51045
H          8.25516        3.96231        9.03720
H          3.18713        8.83843        3.67119
H          3.18713        3.29727        5.38231
H          5.33917        8.83843        0.85556
H          1.07602        9.36512        8.19794
H          7.45028        2.77058        3.67119
H          7.45028        9.36512        5.38231
H          1.07602        2.77058        0.85556
H          3.38920        8.49499        1.08642
H          3.38920        3.64071        7.96708
H          5.13710        8.49499        3.44033
H          0.87395        9.70856        5.61317
H          7.65235        2.42714        1.08642
H          7.65235        9.70856        7.96708
H          0.87395        2.42714        3.44033
H          5.49179        6.29479        2.21358
H          5.49179        5.84091        6.83992
H          3.03451        6.29479        2.31317
H          7.29766       11.90876        6.74033
H          1.22864        0.22694        2.21358
H          1.22864       11.90876        6.83992
H          7.29766        0.22694        2.31317
H          2.00198       10.51316        2.03251
H          2.00198        1.62254        7.02099
H          6.52432       10.51316        2.49424
H          2.26117        7.69039        6.55926
H          6.26513        4.44531        2.03251
H          6.26513        7.69039        7.02099
H          2.26117        4.44531        2.49424
H          2.78639       11.76192        3.37062
H          2.78639        0.37378        5.68288
H          5.73991       11.76192        1.15613
H          1.47676        6.44163        7.89737
H          7.04954        5.69407        3.37062
H          7.04954        6.44163        5.68288
H          1.47676        5.69407        1.15613
H          3.06265       12.10415        1.43860
H          3.06265        0.03155        7.61490
H          5.46365       12.10415        3.08815
H          1.20050        6.09940        5.96535
H          7.32580        6.03630        1.43860
H          7.32580        6.09940        7.61490
H          1.20050        6.03630        3.08815
Na         0.51499        0.00000        4.52675
Na         3.74816        6.06785        0.00000
Na         4.77814        6.06785        4.52675
Y          0.00000        7.91490        6.79012
Y          4.26315       10.28865        2.26337
Y          4.26315        1.84705        6.79012
