104
?
B          1.63053        0.33774        0.38075
B          0.91330        0.83361       11.49216
Cl         3.42045        0.63880        0.79945
Cl         1.82028        1.75703       10.18419
Na         4.64999        4.64999        4.64999
B          4.69427       12.31186        6.70555
B         11.01907        6.66254        5.94405
B          7.95533        5.98706       12.26885
B          0.38075        1.63053        0.33774
B          6.70555        4.69427       12.31186
B          5.94405       11.01907        6.66254
B         12.26885        7.95533        5.98706
B          0.33774        0.38075        1.63053
B         12.31186        6.70555        4.69427
B          6.66254        5.94405       11.01907
B          5.98706       12.26885        7.95533
B         11.01907       12.31186       12.26885
B          7.95533        0.33774        5.94405
B          1.63053        5.98706        6.70555
B          4.69427        6.66254        0.38075
B         12.26885       11.01907       12.31186
B          5.94405        7.95533        0.33774
B          6.70555        1.63053        5.98706
B          0.38075        4.69427        6.66254
B         12.31186       12.26885       11.01907
B          0.33774        5.94405        7.95533
B          5.98706        6.70555        1.63053
B          6.66254        0.38075        4.69427
B          5.41150       11.81599        5.16736
B         11.73630        7.15841        7.48224
B          7.23810        5.49119        1.15744
B         11.49216        0.91330        0.83361
B          5.16736        5.41150       11.81599
B          7.48224       11.73630        7.15841
B          1.15744        7.23810        5.49119
B          0.83361       11.49216        0.91330
B         11.81599        5.16736        5.41150
B          7.15841        7.48224       11.73630
B          5.49119        1.15744        7.23810
B         11.73630       11.81599        1.15744
B          7.23810        0.83361        7.48224
B          0.91330        5.49119        5.16736
B          5.41150        7.15841       11.49216
B          1.15744       11.73630       11.81599
B          7.48224        7.23810        0.83361
B          5.16736        0.91330        5.49119
B         11.49216        5.41150        7.15841
B         11.81599        1.15744       11.73630
B          0.83361        7.48224        7.23810
B          5.49119        5.16736        0.91330
B          7.15841       11.49216        5.41150
Cl         2.90435       12.01080        7.12425
Cl         9.22915        6.96360        5.52535
Cl         9.74525        5.68600       11.85015
Cl         0.79945        3.42045        0.63880
Cl         7.12425        2.90435       12.01080
Cl         5.52535        9.22915        6.96360
Cl        11.85015        9.74525        5.68600
Cl         0.63880        0.79945        3.42045
Cl        12.01080        7.12425        2.90435
Cl         6.96360        5.52535        9.22915
Cl         5.68600       11.85015        9.74525
Cl         9.22915       12.01080       11.85015
Cl         9.74525        0.63880        5.52535
Cl         3.42045        5.68600        7.12425
Cl         2.90435        6.96360        0.79945
Cl        11.85015        9.22915       12.01080
Cl         5.52535        9.74525        0.63880
Cl         7.12425        3.42045        5.68600
Cl         0.79945        2.90435        6.96360
Cl        12.01080       11.85015        9.22915
Cl         0.63880        5.52535        9.74525
Cl         5.68600        7.12425        3.42045
Cl         6.96360        0.79945        2.90435
Cl         4.50452       10.89257        3.85939
Cl        10.82932        8.08183        8.79021
Cl         8.14508        4.56777        2.46541
Cl        10.18419        1.82028        1.75703
Cl         3.85939        4.50452       10.89257
Cl         8.79021       10.82932        8.08183
Cl         2.46541        8.14508        4.56777
Cl         1.75703       10.18419        1.82028
Cl        10.89257        3.85939        4.50452
Cl         8.08183        8.79021       10.82932
Cl         4.56777        2.46541        8.14508
Cl        10.82932       10.89257        2.46541
Cl         8.14508        1.75703        8.79021
Cl         1.82028        4.56777        3.85939
Cl         4.50452        8.08183       10.18419
Cl         2.46541       10.82932       10.89257
Cl         8.79021        8.14508        1.75703
Cl         3.85939        1.82028        4.56777
Cl        10.18419        4.50452        8.08183
Cl        10.89257        2.46541       10.82932
Cl         1.75703        8.79021        8.14508
Cl         4.56777        3.85939        1.82028
Cl         8.08183       10.18419        4.50452
Na         1.67481        7.99961       10.97479
Na         7.99961       10.97479        1.67481
Na        10.97479        1.67481        7.99961
Na         7.99961        7.99961        7.99961
Na        10.97479        4.64999        1.67481
Na         4.64999        1.67481       10.97479
Na         1.67481       10.97479        4.64999
