          22

Cr           1.50916   0.00000   8.85059
Cr           1.94593   1.23546   0.29992
Cr           1.07238   3.78753  14.71124
Cr           2.25645   2.11337   6.14129
Cr           0.76187   2.90963   8.86988
Cr           2.83827   3.76162   0.24275
Cr           0.18005   1.26138  14.76841
Cr           2.99452   4.20368   3.26287
Cr           0.02380   0.81932  11.74830
O            0.00000   0.75711   0.38365
O            2.68445   3.32648   2.16335
O            0.33387   1.69651  12.84782
O            0.85082   3.16064   0.00000
O            2.16750   1.86235  15.01117
O            1.69662   0.53100   2.34094
O            1.32169   4.49200  12.67023
O            1.85072   0.96663   5.27264
O            1.16760   4.05637   9.73852
O            1.12801   3.94427   5.01995
O            1.89030   1.07872   9.99122
O            0.41934   1.95241   7.48955
O            2.59897   3.07059   7.52161
