          36

Sn           3.14701   2.69467   4.91028
Sn           3.14798   0.02634   2.23288
Sn           3.29715   2.89008   9.80793
Sn           0.06109   1.15471   0.29692
Sn           3.29577   0.22196   7.12425
Sn           3.30589   2.92544  12.35467
Sn           5.92782   6.48642  12.68229
Sn           3.19955   2.76822  14.73912
Sn           0.18912   1.33674   5.17286
Sn           3.20005   0.00000  11.96036
Sn           0.00000   1.17086   9.95381
Sn           5.71152   6.19174  22.38934
O            1.47117   0.41261   0.00000
O            1.61493   0.59954   2.42082
O            1.47405   3.18905   2.78705
O            4.67556   2.01702   4.79317
O            1.65704   0.67556   4.97717
O            1.84574   3.49006   5.45262
O            1.73201   0.75922   7.30511
O            4.81820   2.39902   7.31616
O            4.80701   4.96212   7.67217
O            1.65947   3.34777   7.66032
O            4.77274   2.21473   9.63001
O            4.82017   4.97758   9.90396
O            1.71809   0.75144  10.06717
O            2.06283   3.60452  10.48104
O            4.81337   2.58232  12.21132
O            1.64388   0.64148  12.16056
O            4.98467   5.20750  12.56409
O            1.71825   3.17891  12.50414
O            4.52400   2.15035  14.26539
O            4.81478   4.97146  14.60793
O            1.69341   3.47907  15.03000
O            4.89210   2.30701  17.03694
O            4.69592   4.81375  17.39310
O            4.89070   5.07367  19.81108
