169
b_Mn_13_2_5
Zn        -0.00000        8.88577        2.14745
Zn         4.40310        0.00000        2.14745
Li         9.37057        0.00000        2.14745
Mn         9.37057        0.00000        2.14745
Li         0.00000        0.00000        0.00000
B          2.02011        0.00000        2.14745
H          1.36995        0.00000        3.07498
H         -5.02123       12.40380        2.14745
B          5.10969        0.00000        0.01543
H          4.55242        0.00000        7.61909
H          6.22519        0.00000        8.40853
H         -2.86472       12.40380        0.60684
B          5.43868        4.58160        2.14745
H          4.63982        3.77858        2.14745
H          4.94787        5.60245        2.14745
H          6.08352        4.47269        1.22261
Zn         7.69530        4.44288        6.44235
Zn         7.69530        4.44288        2.14745
Zn        -0.00000        8.88577        6.44235
Zn        -2.20155        3.81319        2.14745
Zn         5.49375        9.51546        2.14745
Zn        10.98750        0.00000        6.44235
Zn        -5.49375        9.51546        6.44235
Zn         2.20155        3.81319        6.44235
Li        -4.68528        8.11515        2.14745
Li         3.01002        5.21350        2.14745
Li         6.02003        0.00000        6.44235
Li        -3.01002        5.21350        6.44235
Li         4.68528        8.11515        6.44235
Li         0.00000        0.00000        4.29490
B         -1.01006        1.74947        2.14745
B          6.68524       11.57918        2.14745
B         13.37049        0.00000        6.44235
B         -6.68524       11.57918        6.44235
B          1.01006        1.74947        6.44235
H         -0.68498        1.18642        3.07498
H          7.01032       12.14224        3.07498
H         14.02065        0.00000        7.36988
H         -7.01032       12.14224        7.36988
H          0.68498        1.18642        7.36988
H         -0.68498        1.18642        1.21992
H          1.36995        0.00000        1.21992
H          7.01032       12.14224        1.21992
H         -7.01032       12.14224        5.51482
H         14.02065        0.00000        5.51482
H          0.68498        1.18642        5.51482
H         -0.53609        2.77824        2.14745
H          5.55732       11.47526        2.14745
H         12.71653        0.92485        6.44235
H          8.23139       10.55041        6.44235
H          2.13798        1.85339        6.44235
H         13.25262        1.85339        2.14745
H          2.67407        0.92485        2.14745
H          7.15921       10.55041        2.14745
H         -5.55732       11.47526        6.44235
H          5.02123       12.40380        6.44235
H          0.53609        2.77824        6.44235
B         -2.55485        4.42512        0.01543
B          5.14045        8.90353        0.01543
B         10.28091        0.00000        4.31033
B         -5.14045        8.90353        4.31033
B          2.55485        4.42512        4.31033
B         -2.55485        4.42512        4.27947
B          5.10969        0.00000        4.27947
B          5.14045        8.90353        4.27947
B         -5.14045        8.90353        8.57437
B         10.28091        0.00000        8.57437
B          2.55485        4.42512        8.57437
H         -2.27621        3.94251        7.61909
H          5.41909        9.38614        7.61909
H         10.83818        0.00000        3.32419
H         -5.41909        9.38614        3.32419
H          2.27621        3.94251        3.32419
H         -2.27621        3.94251        5.26561
H          4.55242        0.00000        5.26561
H          5.41909        9.38614        5.26561
H         -5.41909        9.38614        0.97071
H         10.83818        0.00000        0.97071
H          2.27621        3.94251        0.97071
H         -3.11259        5.39117        8.40853
H          4.58271        7.93748        8.40853
H          9.16541        0.00000        4.11363
H         -4.58271        7.93748        4.11363
H          3.11259        5.39117        4.11363
H         -3.11259        5.39117        4.47617
H          6.22519        0.00000        4.47617
H          4.58271        7.93748        4.47617
H         -4.58271        7.93748        0.18127
H          9.16541        0.00000        0.18127
H          3.11259        5.39117        0.18127
H         -1.61435        4.64583        0.60684
H          4.47907        9.60767        0.60684
H         10.56002        0.92485        4.90174
H          9.30965        8.68282        4.90174
H          3.21623        3.72098        4.90174
H         12.17437        3.72098        3.68806
H          4.83058        0.92485        3.68806
H          6.08095        8.68282        3.68806
H         -4.47907        9.60767        7.98296
H          2.86472       12.40380        7.98296
H          1.61435        4.64583        7.98296
H         10.56002        0.92485        7.98296
H          9.30965        8.68282        7.98296
H          3.21623        3.72098        7.98296
H         -2.86472       12.40380        3.68806
H         -1.61435        4.64583        3.68806
H          4.47907        9.60767        3.68806
H         -4.47907        9.60767        4.90174
H          2.86472       12.40380        4.90174
H          1.61435        4.64583        4.90174
H         12.17437        3.72098        0.60684
H          4.83058        0.92485        0.60684
H          6.08095        8.68282        0.60684
B          8.70348        2.41923        2.14745
B          8.94374        6.32782        2.14745
B          2.25662        8.74705        6.44235
B         -1.00818       10.90942        6.44235
B         -1.24844        7.00083        6.44235
B          1.24844        7.00083        2.14745
B         -2.25662        8.74705        2.14745
B          1.00818       10.90942        2.14745
B          6.44686        6.32782        6.44235
B          9.95192        4.58160        6.44235
B          6.68712        2.41923        6.44235
H          9.79834        2.12891        2.14745
H          8.64774        7.42116        2.14745
H          3.05548        9.55007        6.44235
H         -2.10304       11.19974        6.44235
H         -0.95244        5.90749        6.44235
H          0.95244        5.90749        2.14745
H         -3.05548        9.55007        2.14745
H          2.10304       11.19974        2.14745
H          6.74286        7.42116        6.44235
H         10.75078        3.77858        6.44235
H          5.59226        2.12891        6.44235
H          8.06481        1.48376        2.14745
H         10.07323        6.24245        2.14745
H          2.74743        7.72621        6.44235
H         -0.36951       11.84489        6.44235
H         -2.37793        7.08620        6.44235
H          2.37793        7.08620        2.14745
H         -2.74743        7.72621        2.14745
H          0.36951       11.84489        2.14745
H          5.31737        6.24245        6.44235
H         10.44273        5.60245        6.44235
H          7.32579        1.48376        6.44235
H          8.47538        3.03213        1.22261
H          8.52700        5.82383        1.22261
H          1.61178        8.85596        5.51751
H         -0.78008       10.29652        5.51751
H         -0.83170        7.50482        5.51751
H          0.83170        7.50482        3.07229
H         -1.61178        8.85596        3.07229
H          0.78008       10.29652        3.07229
H          6.86360        5.82383        7.36719
H          9.30708        4.47269        7.36719
H          6.91522        3.03213        7.36719
H          1.61178        8.85596        7.36719
H         -0.78008       10.29652        7.36719
H         -0.83170        7.50482        7.36719
H          6.08352        4.47269        3.07229
H          8.47538        3.03213        3.07229
H          8.52700        5.82383        3.07229
H          6.86360        5.82383        5.51751
H          9.30708        4.47269        5.51751
H          6.91522        3.03213        5.51751
H          0.83170        7.50482        1.22261
H         -1.61178        8.85596        1.22261
H          0.78008       10.29652        1.22261
