          20

B           -0.46871   1.75223   4.04935
H           -0.46871   1.75223   3.07430
H           -0.44694   0.77412   4.44682
B           -0.42517   1.75223   4.04935
H           -0.42517   1.75223   3.07430
H           -0.44694   1.71453   3.07430
B           -0.44694   1.71453   4.04935
H           -1.28313   2.22244   4.44682
H            0.38925   2.22244   4.44682
Li          -0.46871   1.75223   0.00000
B            1.75183   0.47020   0.53185
H            1.75183   0.47020   6.59180
H            1.73006   1.44832   0.92932
H            0.89387  -0.00000   0.92932
H            2.56625  -0.00000   0.92932
B            1.70829   0.47020   0.53185
H            1.70829   0.47020   6.59180
H            1.73006   0.50791   6.59180
B            1.73006   0.50791   0.53185
Li           1.75183   0.47020   3.51750
