420
?
B         12.87728        0.33832       11.56233
B          1.17090       12.57993       12.04470
Cl        12.53368        0.68192        9.90641
Cl         2.30216       11.87290       10.91344
Na         3.30390        3.30390        3.30390
Na         0.00000        3.30390        3.30390
Na         0.00000        0.00000        6.60780
B          0.33832       12.87728       11.56233
B          0.33832        0.33832        1.65327
B         12.87728       12.87728        1.65327
B         11.56233       12.87728        0.33832
B         11.56233        0.33832       12.87728
B          1.65327        0.33832        0.33832
B          1.65327       12.87728       12.87728
B          0.33832       11.56233       12.87728
B         12.87728       11.56233        0.33832
B          0.33832        1.65327        0.33832
B         12.87728        1.65327       12.87728
B          0.33832       12.87728        1.65327
B         12.87728        0.33832        1.65327
B          0.33832        0.33832       11.56233
B         12.87728       12.87728       11.56233
B         12.87728       11.56233       12.87728
B          0.33832       11.56233        0.33832
B          0.33832        1.65327       12.87728
B         12.87728        1.65327        0.33832
B         11.56233        0.33832        0.33832
B         11.56233       12.87728       12.87728
B          1.65327        0.33832       12.87728
B          1.65327       12.87728        0.33832
B         12.87728        6.94612        4.95453
B          0.33832        6.26948        4.95453
B          0.33832        6.94612        8.26107
B         12.87728        6.26948        8.26107
B         11.56233        6.26948        6.94612
B         11.56233        6.94612        6.26948
B          1.65327        6.94612        6.94612
B          1.65327        6.26948        6.26948
B          0.33832        4.95453        6.26948
B         12.87728        4.95453        6.94612
B          0.33832        8.26107        6.94612
B         12.87728        8.26107        6.26948
B          0.33832        6.26948        8.26107
B         12.87728        6.94612        8.26107
B          0.33832        6.94612        4.95453
B         12.87728        6.26948        4.95453
B         12.87728        4.95453        6.26948
B          0.33832        4.95453        6.94612
B          0.33832        8.26107        6.26948
B         12.87728        8.26107        6.94612
B         11.56233        6.94612        6.94612
B         11.56233        6.26948        6.26948
B          1.65327        6.94612        6.26948
B          1.65327        6.26948        6.94612
B          6.26948        0.33832        4.95453
B          6.94612       12.87728        4.95453
B          6.94612        0.33832        8.26107
B          6.26948       12.87728        8.26107
B          4.95453       12.87728        6.94612
B          4.95453        0.33832        6.26948
B          8.26107        0.33832        6.94612
B          8.26107       12.87728        6.26948
B          6.94612       11.56233        6.26948
B          6.26948       11.56233        6.94612
B          6.94612        1.65327        6.94612
B          6.26948        1.65327        6.26948
B          6.94612       12.87728        8.26107
B          6.26948        0.33832        8.26107
B          6.94612        0.33832        4.95453
B          6.26948       12.87728        4.95453
B          6.26948       11.56233        6.26948
B          6.94612       11.56233        6.94612
B          6.94612        1.65327        6.26948
B          6.26948        1.65327        6.94612
B          4.95453        0.33832        6.94612
B          4.95453       12.87728        6.26948
B          8.26107        0.33832        6.26948
B          8.26107       12.87728        6.94612
B          6.26948        6.94612       11.56233
B          6.94612        6.26948       11.56233
B          6.94612        6.94612        1.65327
B          6.26948        6.26948        1.65327
B          4.95453        6.26948        0.33832
B          4.95453        6.94612       12.87728
B          8.26107        6.94612        0.33832
B          8.26107        6.26948       12.87728
B          6.94612        4.95453       12.87728
B          6.26948        4.95453        0.33832
B          6.94612        8.26107        0.33832
B          6.26948        8.26107       12.87728
B          6.94612        6.26948        1.65327
B          6.26948        6.94612        1.65327
B          6.94612        6.94612       11.56233
B          6.26948        6.26948       11.56233
B          6.26948        4.95453       12.87728
B          6.94612        4.95453        0.33832
B          6.94612        8.26107       12.87728
B          6.26948        8.26107        0.33832
B          4.95453        6.94612        0.33832
B          4.95453        6.26948       12.87728
B          8.26107        6.94612       12.87728
B          8.26107        6.26948        0.33832
B         12.04470        0.63567       12.04470
B         12.04470       12.57993        1.17090
B          1.17090        0.63567        1.17090
B         12.04470        1.17090       12.57993
B         12.04470       12.04470        0.63567
B          1.17090       12.04470       12.57993
B          1.17090        1.17090        0.63567
B         12.57993       12.04470        1.17090
B          0.63567       12.04470       12.04470
B         12.57993        1.17090       12.04470
B          0.63567        1.17090        1.17090
B         12.57993        1.17090        1.17090
B          0.63567       12.04470        1.17090
B         12.57993       12.04470       12.04470
B          0.63567        1.17090       12.04470
B          1.17090       12.04470        0.63567
B         12.04470       12.04470       12.57993
B         12.04470        1.17090        0.63567
B          1.17090        1.17090       12.57993
B         12.04470       12.57993       12.04470
B         12.04470        0.63567        1.17090
B          1.17090       12.57993        1.17090
B          1.17090        0.63567       12.04470
B          1.17090        5.97213        5.43690
B         12.04470        7.24347        5.43690
B         12.04470        5.97213        7.77870
B          1.17090        7.24347        7.77870
B         12.04470        7.77870        5.97213
B         12.04470        5.43690        7.24347
B          1.17090        5.43690        5.97213
B          1.17090        7.77870        7.24347
B         12.57993        5.43690        7.77870
B          0.63567        5.43690        5.43690
B         12.57993        7.77870        5.43690
B          0.63567        7.77870        7.77870
B         12.57993        7.77870        7.77870
B          0.63567        5.43690        7.77870
B         12.57993        5.43690        5.43690
B          0.63567        7.77870        5.43690
B          1.17090        5.43690        7.24347
B         12.04470        5.43690        5.97213
B         12.04470        7.77870        7.24347
B          1.17090        7.77870        5.97213
B         12.04470        5.97213        5.43690
B         12.04470        7.24347        7.77870
B          1.17090        5.97213        7.77870
B          1.17090        7.24347        5.43690
B          7.77870       12.57993        5.43690
B          5.43690        0.63567        5.43690
B          5.43690       12.57993        7.77870
B          7.77870        0.63567        7.77870
B          5.43690        1.17090        5.97213
B          5.43690       12.04470        7.24347
B          7.77870       12.04470        5.97213
B          7.77870        1.17090        7.24347
B          5.97213       12.04470        7.77870
B          7.24347       12.04470        5.43690
B          5.97213        1.17090        5.43690
B          7.24347        1.17090        7.77870
B          5.97213        1.17090        7.77870
B          7.24347       12.04470        7.77870
B          5.97213       12.04470        5.43690
B          7.24347        1.17090        5.43690
B          7.77870       12.04470        7.24347
B          5.43690       12.04470        5.97213
B          5.43690        1.17090        7.24347
B          7.77870        1.17090        5.97213
B          5.43690       12.57993        5.43690
B          5.43690        0.63567        7.77870
B          7.77870       12.57993        7.77870
B          7.77870        0.63567        5.43690
B          7.77870        5.97213       12.04470
B          5.43690        7.24347       12.04470
B          5.43690        5.97213        1.17090
B          7.77870        7.24347        1.17090
B          5.43690        7.77870       12.57993
B          5.43690        5.43690        0.63567
B          7.77870        5.43690       12.57993
B          7.77870        7.77870        0.63567
B          5.97213        5.43690        1.17090
B          7.24347        5.43690       12.04470
B          5.97213        7.77870       12.04470
B          7.24347        7.77870        1.17090
B          5.97213        7.77870        1.17090
B          7.24347        5.43690        1.17090
B          5.97213        5.43690       12.04470
B          7.24347        7.77870       12.04470
B          7.77870        5.43690        0.63567
B          5.43690        5.43690       12.57993
B          5.43690        7.77870        0.63567
B          7.77870        7.77870       12.57993
B          5.43690        5.97213       12.04470
B          5.43690        7.24347        1.17090
B          7.77870        5.97213        1.17090
B          7.77870        7.24347       12.04470
Cl         0.68192       12.53368        9.90641
Cl         0.68192        0.68192        3.30919
Cl        12.53368       12.53368        3.30919
Cl         9.90641       12.53368        0.68192
Cl         9.90641        0.68192       12.53368
Cl         3.30919        0.68192        0.68192
Cl         3.30919       12.53368       12.53368
Cl         0.68192        9.90641       12.53368
Cl        12.53368        9.90641        0.68192
Cl         0.68192        3.30919        0.68192
Cl        12.53368        3.30919       12.53368
Cl         0.68192       12.53368        3.30919
Cl        12.53368        0.68192        3.30919
Cl         0.68192        0.68192        9.90641
Cl        12.53368       12.53368        9.90641
Cl        12.53368        9.90641       12.53368
Cl         0.68192        9.90641        0.68192
Cl         0.68192        3.30919       12.53368
Cl        12.53368        3.30919        0.68192
Cl         9.90641        0.68192        0.68192
Cl         9.90641       12.53368       12.53368
Cl         3.30919        0.68192       12.53368
Cl         3.30919       12.53368        0.68192
Cl        12.53368        7.28972        3.29861
Cl         0.68192        5.92588        3.29861
Cl         0.68192        7.28972        9.91699
Cl        12.53368        5.92588        9.91699
Cl         9.90641        5.92588        7.28972
Cl         9.90641        7.28972        5.92588
Cl         3.30919        7.28972        7.28972
Cl         3.30919        5.92588        5.92588
Cl         0.68192        3.29861        5.92588
Cl        12.53368        3.29861        7.28972
Cl         0.68192        9.91699        7.28972
Cl        12.53368        9.91699        5.92588
Cl         0.68192        5.92588        9.91699
Cl        12.53368        7.28972        9.91699
Cl         0.68192        7.28972        3.29861
Cl        12.53368        5.92588        3.29861
Cl        12.53368        3.29861        5.92588
Cl         0.68192        3.29861        7.28972
Cl         0.68192        9.91699        5.92588
Cl        12.53368        9.91699        7.28972
Cl         9.90641        7.28972        7.28972
Cl         9.90641        5.92588        5.92588
Cl         3.30919        7.28972        5.92588
Cl         3.30919        5.92588        7.28972
Cl         5.92588        0.68192        3.29861
Cl         7.28972       12.53368        3.29861
Cl         7.28972        0.68192        9.91699
Cl         5.92588       12.53368        9.91699
Cl         3.29861       12.53368        7.28972
Cl         3.29861        0.68192        5.92588
Cl         9.91699        0.68192        7.28972
Cl         9.91699       12.53368        5.92588
Cl         7.28972        9.90641        5.92588
Cl         5.92588        9.90641        7.28972
Cl         7.28972        3.30919        7.28972
Cl         5.92588        3.30919        5.92588
Cl         7.28972       12.53368        9.91699
Cl         5.92588        0.68192        9.91699
Cl         7.28972        0.68192        3.29861
Cl         5.92588       12.53368        3.29861
Cl         5.92588        9.90641        5.92588
Cl         7.28972        9.90641        7.28972
Cl         7.28972        3.30919        5.92588
Cl         5.92588        3.30919        7.28972
Cl         3.29861        0.68192        7.28972
Cl         3.29861       12.53368        5.92588
Cl         9.91699        0.68192        5.92588
Cl         9.91699       12.53368        7.28972
Cl         5.92588        7.28972        9.90641
Cl         7.28972        5.92588        9.90641
Cl         7.28972        7.28972        3.30919
Cl         5.92588        5.92588        3.30919
Cl         3.29861        5.92588        0.68192
Cl         3.29861        7.28972       12.53368
Cl         9.91699        7.28972        0.68192
Cl         9.91699        5.92588       12.53368
Cl         7.28972        3.29861       12.53368
Cl         5.92588        3.29861        0.68192
Cl         7.28972        9.91699        0.68192
Cl         5.92588        9.91699       12.53368
Cl         7.28972        5.92588        3.30919
Cl         5.92588        7.28972        3.30919
Cl         7.28972        7.28972        9.90641
Cl         5.92588        5.92588        9.90641
Cl         5.92588        3.29861       12.53368
Cl         7.28972        3.29861        0.68192
Cl         7.28972        9.91699       12.53368
Cl         5.92588        9.91699        0.68192
Cl         3.29861        7.28972        0.68192
Cl         3.29861        5.92588       12.53368
Cl         9.91699        7.28972       12.53368
Cl         9.91699        5.92588        0.68192
Cl        10.91344        1.34270       10.91344
Cl        10.91344       11.87290        2.30216
Cl         2.30216        1.34270        2.30216
Cl        10.91344        2.30216       11.87290
Cl        10.91344       10.91344        1.34270
Cl         2.30216       10.91344       11.87290
Cl         2.30216        2.30216        1.34270
Cl        11.87290       10.91344        2.30216
Cl         1.34270       10.91344       10.91344
Cl        11.87290        2.30216       10.91344
Cl         1.34270        2.30216        2.30216
Cl        11.87290        2.30216        2.30216
Cl         1.34270       10.91344        2.30216
Cl        11.87290       10.91344       10.91344
Cl         1.34270        2.30216       10.91344
Cl         2.30216       10.91344        1.34270
Cl        10.91344       10.91344       11.87290
Cl        10.91344        2.30216        1.34270
Cl         2.30216        2.30216       11.87290
Cl        10.91344       11.87290       10.91344
Cl        10.91344        1.34270        2.30216
Cl         2.30216       11.87290        2.30216
Cl         2.30216        1.34270       10.91344
Cl         2.30216        5.26510        4.30564
Cl        10.91344        7.95050        4.30564
Cl        10.91344        5.26510        8.90996
Cl         2.30216        7.95050        8.90996
Cl        10.91344        8.90996        5.26510
Cl        10.91344        4.30564        7.95050
Cl         2.30216        4.30564        5.26510
Cl         2.30216        8.90996        7.95050
Cl        11.87290        4.30564        8.90996
Cl         1.34270        4.30564        4.30564
Cl        11.87290        8.90996        4.30564
Cl         1.34270        8.90996        8.90996
Cl        11.87290        8.90996        8.90996
Cl         1.34270        4.30564        8.90996
Cl        11.87290        4.30564        4.30564
Cl         1.34270        8.90996        4.30564
Cl         2.30216        4.30564        7.95050
Cl        10.91344        4.30564        5.26510
Cl        10.91344        8.90996        7.95050
Cl         2.30216        8.90996        5.26510
Cl        10.91344        5.26510        4.30564
Cl        10.91344        7.95050        8.90996
Cl         2.30216        5.26510        8.90996
Cl         2.30216        7.95050        4.30564
Cl         8.90996       11.87290        4.30564
Cl         4.30564        1.34270        4.30564
Cl         4.30564       11.87290        8.90996
Cl         8.90996        1.34270        8.90996
Cl         4.30564        2.30216        5.26510
Cl         4.30564       10.91344        7.95050
Cl         8.90996       10.91344        5.26510
Cl         8.90996        2.30216        7.95050
Cl         5.26510       10.91344        8.90996
Cl         7.95050       10.91344        4.30564
Cl         5.26510        2.30216        4.30564
Cl         7.95050        2.30216        8.90996
Cl         5.26510        2.30216        8.90996
Cl         7.95050       10.91344        8.90996
Cl         5.26510       10.91344        4.30564
Cl         7.95050        2.30216        4.30564
Cl         8.90996       10.91344        7.95050
Cl         4.30564       10.91344        5.26510
Cl         4.30564        2.30216        7.95050
Cl         8.90996        2.30216        5.26510
Cl         4.30564       11.87290        4.30564
Cl         4.30564        1.34270        8.90996
Cl         8.90996       11.87290        8.90996
Cl         8.90996        1.34270        4.30564
Cl         8.90996        5.26510       10.91344
Cl         4.30564        7.95050       10.91344
Cl         4.30564        5.26510        2.30216
Cl         8.90996        7.95050        2.30216
Cl         4.30564        8.90996       11.87290
Cl         4.30564        4.30564        1.34270
Cl         8.90996        4.30564       11.87290
Cl         8.90996        8.90996        1.34270
Cl         5.26510        4.30564        2.30216
Cl         7.95050        4.30564       10.91344
Cl         5.26510        8.90996       10.91344
Cl         7.95050        8.90996        2.30216
Cl         5.26510        8.90996        2.30216
Cl         7.95050        4.30564        2.30216
Cl         5.26510        4.30564       10.91344
Cl         7.95050        8.90996       10.91344
Cl         8.90996        4.30564        1.34270
Cl         4.30564        4.30564       11.87290
Cl         4.30564        8.90996        1.34270
Cl         8.90996        8.90996       11.87290
Cl         4.30564        5.26510       10.91344
Cl         4.30564        7.95050        2.30216
Cl         8.90996        5.26510        2.30216
Cl         8.90996        7.95050       10.91344
Na         9.91170        9.91170        3.30390
Na         9.91170        3.30390        9.91170
Na         3.30390        9.91170        9.91170
Na         3.30390        3.30390        9.91170
Na         9.91170        9.91170        9.91170
Na         3.30390        9.91170        3.30390
Na         9.91170        3.30390        3.30390
Na         0.00000        9.91170        3.30390
Na         0.00000        3.30390        9.91170
Na         0.00000        9.91170        9.91170
Na         3.30390        0.00000        3.30390
Na         3.30390        0.00000        9.91170
Na         9.91170        0.00000        3.30390
Na         9.91170        0.00000        9.91170
Na         3.30390        3.30390        0.00000
Na         9.91170        3.30390        0.00000
Na         3.30390        9.91170        0.00000
Na         9.91170        9.91170        0.00000
Na         3.30390        6.60780        9.91170
Na         3.30390        6.60780        3.30390
Na         9.91170        6.60780        9.91170
Na         9.91170        6.60780        3.30390
Na         3.30390        9.91170        6.60780
Na         9.91170        9.91170        6.60780
Na         3.30390        3.30390        6.60780
Na         9.91170        3.30390        6.60780
Na         6.60780        3.30390        9.91170
Na         6.60780        9.91170        9.91170
Na         6.60780        3.30390        3.30390
Na         6.60780        9.91170        3.30390
Na         6.60780        0.00000        0.00000
Na         0.00000        6.60780        0.00000
Na         6.60780        6.60780        6.60780
